/*--------------------------------*- C++ -*----------------------------------*
| =========                 |                                                 |
| \\      /  F ield         | OpenFOAM: The Open Source CFD Toolbox           |
|  \\    /   O peration     | Version:  2.1.0                                 |
|   \\  /    A nd           | Web:      www.OpenFOAM.com                      |
|    \\/     M anipulation  |                                                 |
\*---------------------------------------------------------------------------*/
FoamFile
{
    version     2.0;
    format      ascii;
    class       dictionary;
    object      blockMeshDict;
}

// * * * * * * * * * * * * * * * * * * * * * * * * * * * * * * * * * * * * * //

convertToMeters 1;

vertices
    (
    {% for vertex in vertices -%}
    ({{ vertex[0] | floatformat }} {{ vertex[1] | floatformat }} {{ vertex[2] | floatformat }}) // {{ loop.index0 }}
    {% endfor %}
    );

blocks
    (
    //Center Blocks
    hex (0 1 2 3 4 5 6 7) ( {{ inner_num_x }} {{ inner_num_y }} {{ inner_num_z }} ) edgeGrading ( 1 1 1 1 1 1 1 1 1 1 1 1) // 0: Center Block
    hex (8 9 10 11 0 1 2 3) ( {{ inner_num_x }} {{ inner_num_y }} {{ bottom_num }} ) edgeGrading ( 1 1 1 1 1 1 1 1 {{ bottom_grading }} {{ bottom_grading }} {{ bottom_grading }} {{ bottom_grading }} ) //1: Center Cross Bottom
    hex (4 5 6 7 12 13 14 15) ( {{ inner_num_x }} {{ inner_num_y }} {{ top_num }} ) edgeGrading ( 1 1 1 1 1 1 1 1 {{ top_grading }} {{ top_grading }} {{ top_grading }} {{ top_grading }} ) //2: Center Cross Top
    hex (16 17 1 0 19 18 5 4) ( {{ inner_num_x }} {{ side_num }} {{ inner_num_z }} ) edgeGrading ( 1 1 1 1 {{ side_grading }} {{ side_grading }} {{ side_grading }} {{ side_grading }} 1 1 1 1 ) //3: Center Cross Left
    
    hex (20 21 9 8 16 17 1 0) ( {{ inner_num_x }} {{ side_num }} {{ bottom_num }} ) edgeGrading (1 1 1 1 {{ side_grading }} {{ side_grading }} {{ side_grading }} {{ side_grading }} {{ bottom_grading }} {{ bottom_grading }} {{ bottom_grading }} {{ bottom_grading }} )  //5
    hex (19 18 5 4 22 23 13 12)  ( {{ inner_num_x }} {{ side_num }} {{ top_num }} )  edgeGrading (1 1 1 1 {{ side_grading }} {{ side_grading }} {{ side_grading }} {{ side_grading }} {{ top_grading }} {{ top_grading }} {{ top_grading }} {{ top_grading }} )  //6

    hex (1 34 33 2 5 35 32 6) ( {{ outlet_num }} {{ inner_num_y }} {{ inner_num_z }} ) edgeGrading ( {{ outlet_grading }} {{ outlet_grading }} {{ outlet_grading }} {{ outlet_grading }} 1 1 1 1 1 1 1 1)   //9: max x center outlet
    hex (39 0 3 37 38 4 7 36) ( {{ inlet_num }} {{ inner_num_y }} {{ inner_num_z }} ) edgeGrading ( {{ inlet_grading }} {{ inlet_grading }} {{ inlet_grading }} {{ inlet_grading }} 1 1 1 1 1 1 1 1)   //10: min x center outlet

    hex (17 46 34 1 18 45 35 5) ( {{ outlet_num }} {{ side_num }} {{ inner_num_z }} ) edgeGrading ( {{ outlet_grading }} {{ outlet_grading }} {{ outlet_grading }} {{ outlet_grading }} {{ side_grading }} {{ side_grading }} {{ side_grading }} {{ side_grading }} 1 1 1 1)	//12: max x Cross Links
    hex (9 51 50 10 1 34 33 2) (  {{ outlet_num }}  {{ inner_num_y }} {{ bottom_num }} ) edgeGrading (  {{ outlet_grading }}  {{ outlet_grading }}  {{ outlet_grading }}  {{ outlet_grading }} 1 1 1 1 {{ bottom_grading }} {{ bottom_grading }} {{ bottom_grading }} {{ bottom_grading }} ) //13: max x Cross Bottom
    hex (5 35 32 6 13 49 48 14) (  {{ outlet_num }}  {{ inner_num_y }}  {{ top_num }} ) edgeGrading (  {{ outlet_grading }}  {{ outlet_grading }}  {{ outlet_grading }}  {{ outlet_grading }} 1 1 1 1 {{ top_grading }} {{ top_grading }} {{ top_grading }} {{ top_grading }} )   //14: max x Cross Top

    //max Edge blocks
    hex (18 45 35 5 23 44 49 13) (  {{ outlet_num }} {{ side_num }}  {{ top_num }} ) edgeGrading (  {{ outlet_grading }}  {{ outlet_grading }}  {{ outlet_grading }}  {{ outlet_grading }} {{ side_grading }} {{ side_grading }} {{ side_grading }} {{ side_grading }} {{ top_grading }} {{ top_grading }} {{ top_grading }} {{ top_grading }} )    //16
    hex (21 47 51 9 17 46 34 1) (  {{ outlet_num }} {{ side_num }} {{ bottom_num }} ) edgeGrading (  {{ outlet_grading }}  {{ outlet_grading }}  {{ outlet_grading }}  {{ outlet_grading }} {{ side_grading }} {{ side_grading }} {{ side_grading }} {{ side_grading }} {{ bottom_grading }} {{ bottom_grading }} {{ bottom_grading }} {{ bottom_grading }} )   //17

    //***********************************************************

    //min x Blocks
    hex (58 16 0 39 57 19 4 38) (  {{ inlet_num }} {{ side_num }}  {{ inner_num_z }} ) edgeGrading (  {{ inlet_grading }}  {{ inlet_grading }}  {{ inlet_grading }}  {{ inlet_grading }} {{ side_grading }} {{ side_grading }} {{ side_grading }} {{ side_grading }} 1 1 1 1) //20: min x Cross Left
    hex (63 8 11 62 39 0 3 37) (  {{ inlet_num }}  {{ inner_num_y }} {{ bottom_num }} ) edgeGrading (  {{ inlet_grading }}  {{ inlet_grading }}  {{ inlet_grading }}  {{ inlet_grading }} 1 1 1 1 {{ bottom_grading }} {{ bottom_grading }} {{ bottom_grading }} {{ bottom_grading }})    //21: min x Cross Bottom
    hex (38 4 7 36 61 12 15 60) (  {{ inlet_num }}  {{ inner_num_y }}  {{ top_num }} ) edgeGrading (  {{ inlet_grading }}  {{ inlet_grading }}  {{ inlet_grading }}  {{ inlet_grading }} 1 1 1 1 {{ top_grading }} {{ top_grading }} {{ top_grading }} {{ top_grading }} )   //22: min x Cross Top

    //min x edge blocks"
    hex (57 19 4 38 56 22 12 61) (  {{ inlet_num }} {{ side_num }}  {{ top_num }} ) edgeGrading (  {{ inlet_grading }}  {{ inlet_grading }}  {{ inlet_grading }}  {{ inlet_grading }} {{ side_grading }} {{ side_grading }} {{ side_grading }} {{ side_grading }} {{ top_grading }} {{ top_grading }} {{ top_grading }} {{ top_grading }} ) //24
    hex (59 20 8 63 58 16 0 39) (  {{ inlet_num }} {{ side_num }} {{ bottom_num }} ) edgeGrading (  {{ inlet_grading }}  {{ inlet_grading }}  {{ inlet_grading }}  {{ inlet_grading }} {{ side_grading }} {{ side_grading }} {{ side_grading }} {{ side_grading }} {{ bottom_grading }} {{ bottom_grading }} {{ bottom_grading }} {{ bottom_grading }} )  //25
    );

edges
    (
    );

boundary
    (
    outlet
        {
        type patch;
        faces
        (
            (61 38 36 60)
            (38 39 37 36)
            (39 63 62 37)
            (56 57 38 61)
            (57 58 39 38)
            (58 59 63 39)
        );
    }
    inlet
    {
        type patch;
        faces
        (
            (49 35 32 48)
            (35 34 33 32)
            (34 51 50 33)
            (44 45 35 49)
            (45 46 34 35)
            (46 47 51 34)
        );
    }
    frontAndBack
    {
        type patch;
        faces
        (
            (56 22 19 57)
            (22 23 18 19)
            (23 44 45 18)
            (57 19 16 58)
            (19 18 17 16)
            (18 45 46 17)
            (58 16 20 59)
            (16 17 21 20)
            (17 46 47 21)
            (60 15 7 36)
            (15 14 6 7)
            (14 48 32 6)
            (36 7 3 37)
            (7 6 2 3)
            (6 32 33 2)
            (37 3 11 62)
            (3 2 10 11)
            (2 33 50 10)
        );
    }
    upperWall
    {
        type patch;
        faces
        (
            (62 63 8 11)
            (11 8 9 10)
            (10 9 51 50)
            (63 59 20 8)
            (8 20 21 9)
            (9 21 47 51)
        );
    }
    lowerWall
    {
        type patch;
        faces
        (
            (60 61 12 15)
            (15 12 13 14)
            (14 13 49 48)
            (61 56 22 12)
            (12 22 23 13)
            (13 23 44 49)
        );
    }
);
// ************************************************************************* //